trunk/Training/Boise-2019/Examples/Connections/Connections_VLN_Node.Txt

LINE-GROUND and LINE-LINE VOLTAGES BY BUS & NODE

Bus         Node    VLN (kV)   Angle      pu     Base kV    Node-Node   VLL (kV)  Angle      pu

SOURCEBUS . 1       66.393 /_    0.0   0.99996   115.000        1-2        115 /_   30.0   0.99998
   -        2       66.396 /_ -120.0         1   115.000        2-3        115 /_  -90.0         1
   -        3       66.395 /_  120.0   0.99999   115.000        3-1        115 /_  150.0   0.99997
B1 ........ 1        7.198 /_  -30.0   0.99979    12.470        1-2     12.467 /_    0.0   0.99973
   -        2       7.1989 /_ -150.0   0.99991    12.470        2-3     12.471 /_ -120.0    1.0001
   -        3       7.2002 /_   90.0    1.0001    12.470        3-1      12.47 /_  120.0         1
B2 ........ 1       7.1973 /_  -30.0   0.99968    12.470        1-2     12.466 /_    0.0   0.99966
   -        2       7.1991 /_ -150.0   0.99993    12.470        2-3     12.471 /_ -120.0    1.0001
   -        3       7.2001 /_   90.0    1.0001    12.470        3-1      12.47 /_  120.0   0.99997
B3 ........ 1       7.1968 /_  -30.0   0.99961    12.470        1-2     12.465 /_    0.0    0.9996
   -        2       7.1992 /_ -150.0   0.99995    12.470        2-3     12.471 /_ -120.0    1.0001
   -        3          7.2 /_   90.0    1.0001    12.470        3-1      12.47 /_  120.0   0.99997
B4 ........ 1       7.1966 /_  -30.0   0.99959    12.470        1-2     12.465 /_    0.0   0.99957
   -        2        7.199 /_ -150.0   0.99993    12.470        2-3     12.471 /_ -120.0    1.0001
   -        3       7.2001 /_   90.0    1.0001    12.470        3-1      12.47 /_  120.0   0.99996
   -        4      0.13192 /_   46.9  0.018323    12.470
B5 ........ 1       7.1966 /_  -30.0    0.9996    12.470        1-2     12.465 /_    0.0   0.99957
   -        2        7.199 /_ -150.0   0.99993    12.470        2-3     12.471 /_ -120.0    1.0001
   -        3       7.2001 /_   90.0    1.0001    12.470        3-1      12.47 /_  120.0   0.99996
B2LV ...... 1      0.11982 /_  -60.4   0.99777     0.208        1-2    0.20737 /_  -30.2   0.99695
   -        2      0.12005 /_  180.0   0.99966     0.208        2-3    0.20796 /_ -150.0   0.99982
   -        3       0.1201 /_   60.0    1.0001     0.208        3-1    0.20815 /_   89.8    1.0007
B3LV ...... 1      0.11978 /_  -30.4   0.99741     0.208        1-2    0.20734 /_   -0.1   0.99682
   -        2      0.12008 /_ -150.0   0.99995     0.208        2-3    0.20801 /_ -120.0    1.0001
   -        3       0.1201 /_   90.0    1.0001     0.208        3-1    0.20811 /_  119.8    1.0005
B4LV ...... 1      0.11936 /_  -31.3   0.99397     0.208        1-2    0.20732 /_   -0.1   0.99674
   -        2      0.12195 /_ -149.7    1.0155     0.208        2-3    0.20801 /_ -120.0    1.0001
   -        3      0.11867 /_   90.6   0.98816     0.208        3-1     0.2081 /_  119.8    1.0005
B4LVPHANTOM 1      0.12018 /_  -60.2    1.0008     0.208        1-2    0.20768 /_  -30.3   0.99845
   -        2      0.11972 /_  179.8   0.99695     0.208        2-3    0.20753 /_ -150.0   0.99776
   -        3       0.1201 /_   60.0    1.0001     0.208        3-1    0.20832 /_   89.9    1.0016
B5LV ...... 1   9.7924E-007 /_ -138.6 8.1543E-006     0.208        1-2    0.20793 /_  -30.0   0.99967
   -        2      0.20793 /_  150.0    1.7315     0.208        2-3    0.20795 /_ -150.0   0.99977
   -        3      0.20803 /_   90.0    1.7323     0.208        3-1    0.20803 /_   90.0    1.0002
