trunk/Training/ConEd-2019/Examples/Connections/Connections_Curr_Elem.Txt

CIRCUIT ELEMENT CURRENTS

(Currents into element from indicated bus)

Power Delivery Elements

  Bus       Phase    Magnitude, A     Angle      (Real)   +j  (Imag)

ELEMENT = "Vsource.SOURCE"
SOURCEBUS       1          0.44574 /_  131.5 =   -0.29561 +j   0.33362
SOURCEBUS       2          0.10562 /_  109.6 =  -0.035371 +j  0.099516
SOURCEBUS       3          0.54512 /_  -52.6 =    0.33098 +j  -0.43314
------------
SOURCEBUS       0          0.44574 /_  -48.5 =    0.29561 +j  -0.33362
SOURCEBUS       0          0.10562 /_  -70.4 =   0.035371 +j -0.099516
SOURCEBUS       0          0.54512 /_  127.4 =   -0.33098 +j   0.43314

ELEMENT = "Transformer.SUBSTATION"
SOURCEBUS       1          0.44574 /_  -48.5 =    0.29561 +j  -0.33362
SOURCEBUS       2          0.10562 /_  -70.4 =   0.035371 +j -0.099516
SOURCEBUS       3          0.54512 /_  127.4 =   -0.33098 +j   0.43314
SOURCEBUS       0                0 /_    0.0 =          0 +j         0
------------
B1              1           6.1375 /_  130.6 =    -3.9948 +j    4.6595
B1              2          0.98726 /_  -42.6 =    0.72711 +j  -0.66782
B1              3           2.6025 /_  -60.2 =     1.2936 +j   -2.2582
B1              0           2.6271 /_  -41.3 =     1.9741 +j   -1.7334

ELEMENT = "Line.LINE1"
B1              1           6.1375 /_  -49.4 =     3.9948 +j   -4.6595
B1              2          0.98726 /_  137.4 =   -0.72711 +j   0.66782
B1              3           2.6025 /_  119.8 =    -1.2936 +j    2.2582
------------
B2              1           6.1406 /_  130.5 =    -3.9902 +j    4.6675
B2              2          0.99606 /_  -42.7 =    0.73173 +j  -0.67581
B2              3           2.5979 /_  -60.4 =     1.2843 +j   -2.2582

ELEMENT = "Line.LINE2"
B2              1           4.6657 /_  -41.8 =     3.4789 +j   -3.1089
B2              2          0.99604 /_  137.3 =   -0.73172 +j   0.67579
B2              3           1.0427 /_  137.9 =   -0.77312 +j   0.69972
------------
B3              1           4.6675 /_  138.1 =    -3.4743 +j    3.1169
B3              2           1.0049 /_  -42.9 =    0.73633 +j  -0.68378
B3              3           1.0359 /_  -42.5 =    0.76389 +j  -0.69971

ELEMENT = "Line.LINE3"
B3              1           1.8255 /_  -42.0 =     1.3573 +j   -1.2208
B3              2           1.0048 /_  137.1 =   -0.73632 +j   0.68376
B3              3           1.0359 /_  137.5 =   -0.76392 +j   0.69971
------------
B4              1           1.8275 /_  137.7 =    -1.3527 +j    1.2288
B4              2           1.0137 /_  -43.0 =    0.74093 +j  -0.69175
B4              3           1.0291 /_  -42.8 =    0.75469 +j  -0.69971

ELEMENT = "Line.LINE4"
B4              1         0.075638 /_  124.7 =  -0.043047 +j  0.062193
B4              2         0.063183 /_  132.9 =   -0.04304 +j  0.046257
B4              3         0.078568 /_  136.3 =  -0.056842 +j   0.05424
------------
B5              1         0.072182 /_  -48.7 =   0.047664 +j -0.054207
B5              2         0.072205 /_  -48.7 =   0.047653 +j -0.054247
B5              3         0.072171 /_  -48.7 =   0.047612 +j -0.054237

ELEMENT = "Transformer.T2"
B2              1           1.6402 /_  -71.8 =    0.51121 +j   -1.5585
B2              2      1.9289E-005 /_  120.0 =  -9.644E-006 +j 1.6705E-005
B2              3           1.6402 /_  108.2 =    -0.5112 +j    1.5585
B2              0                0 /_    0.0 =          0 +j         0
------------
B2LV            1           170.32 /_  108.2 =    -53.085 +j    161.84
B2LV            2      2.7285E-012 /_    0.0 =  2.7285E-012 +j         0
B2LV            3      4.0674E-012 /_ -153.4 =  -3.638E-012 +j -1.819E-012
B2LV            0           170.32 /_  -71.8 =     53.085 +j   -161.84

ELEMENT = "Transformer.T3"
B3              1            2.842 /_  -41.8 =      2.117 +j   -1.8961
B3              2      2.3148E-005 /_  120.0 =  -1.1574E-005 +j 2.0047E-005
B3              3      2.3151E-005 /_    0.0 =  2.3151E-005 +j -4.5918E-009
B3              0            2.842 /_  138.2 =     -2.117 +j    1.8961
------------
B3LV            1           170.38 /_  138.2 =    -126.92 +j    113.67
B3LV            2       3.638E-012 /_  180.0 =  -3.638E-012 +j         0
B3LV            3      9.0949E-013 /_   90.0 =          0 +j 9.0949E-013
B3LV            0           170.38 /_  -41.8 =     126.92 +j   -113.67

ELEMENT = "Transformer.T4"
B4              1           1.9012 /_  -42.8 =     1.3957 +j    -1.291
B4              2          0.95064 /_  137.2 =   -0.69789 +j    0.6455
B4              3          0.95059 /_  137.2 =   -0.69785 +j   0.64547
B4              4      5.8593E-014 /_  166.0 =  -5.6843E-014 +j 1.4211E-014
------------
B4LV            1           170.97 /_  137.2 =    -125.52 +j    116.09
B4LV            2      1.3258E-012 /_  149.0 =  -1.1369E-012 +j 6.8212E-013
B4LV            3      2.2851E-012 /_    5.7 =  2.2737E-012 +j 2.2737E-013
B4LV            0           170.97 /_  -42.8 =     125.52 +j   -116.09
------------
B4LVPHANTOM     1      1.2621E-012 /_  144.2 =  -1.0232E-012 +j 7.3896E-013
B4LVPHANTOM     2       3.979E-013 /_  -90.0 =          0 +j -3.979E-013
B4LVPHANTOM     3      6.9153E-013 /_   -9.5 =  6.8212E-013 +j -1.1369E-013
B4LVPHANTOM     0                0 /_    0.0 =          0 +j         0

ELEMENT = "Transformer.T5"
B5              1         0.072182 /_  131.3 =  -0.047664 +j  0.054207
B5              2         0.072205 /_  131.3 =  -0.047653 +j  0.054247
B5              3         0.072171 /_  131.3 =  -0.047612 +j  0.054237
B5              0          0.21656 /_  -48.7 =    0.14293 +j  -0.16269
------------
B5LV            1        0.0013878 /_   30.0 =  0.0012023 +j 0.00069321
B5LV            2      5.0022E-012 /_  -90.0 =          0 +j -5.0022E-012
B5LV            3      1.0914E-011 /_  180.0 =  -1.0914E-011 +j         0
B5LV            0                0 /_    0.0 =          0 +j         0

= = = = = = = = = = = = = = = = = = =  = = = = = = = = = = =  = =

Power Conversion Elements

  Bus       Phase    Magnitude, A     Angle      (Real)   +j  (Imag)

ELEMENT = "Load.LOAD2-1PH"
B2LV            1           170.32 /_  -71.8 =     53.085 +j   -161.84
B2LV            0           170.32 /_  108.2 =    -53.085 +j    161.84

ELEMENT = "Load.LOAD3-1PH"
B3LV            1           170.38 /_  -41.8 =     126.92 +j   -113.67
B3LV            0           170.38 /_  138.2 =    -126.92 +j    113.67

ELEMENT = "Load.LOAD4-1PH"
B4LV            1           170.97 /_  -42.8 =     125.52 +j   -116.09
B4LV            0           170.97 /_  137.2 =    -125.52 +j    116.09

ELEMENT = "Load.LOAD5-1PH"
B5LV            1        0.0013878 /_ -150.0 =  -0.0012023 +j -0.00069321
B5LV            0        0.0013878 /_   30.0 =  0.0012023 +j 0.00069321

